STAAD PLANE
START JOB INFORMATION
ENGINEER DATE 01-Jan-24
END JOB INFORMATION

INPUT
UNIT METER KN
JOINT COORDINATES
1 0.00 0.00 0.00
2 6.00 0.00 0.00
3 12.00 0.00 0.00
4 18.00 0.00 0.00
5 24.00 0.00 0.00
6 30.00 0.00 0.00
7 0.00 5.00 0.00
8 6.00 5.00 0.00
9 12.00 5.00 0.00
10 18.00 5.00 0.00
11 24.00 5.00 0.00
12 30.00 5.00 0.00
13 0.00 10.00 0.00
14 6.00 10.00 0.00
15 12.00 10.00 0.00
16 18.00 10.00 0.00
17 24.00 10.00 0.00
18 30.00 10.00 0.00
19 0.00 15.00 0.00
20 6.00 15.00 0.00
# ... 100 like lines cut

MEMBER INCIDENCES
; Columns
1 1 31
2 2 32
3 3 33
4 4 34
5 5 35
6 6 36
7 7 37
8 8 38
9 9 39
10 10 40
11 11 41
12 12 42
13 13 43
14 14 44
15 15 45
16 16 46
17 17 47
18 18 48
19 19 49
20 20 50
# ... 70 like lines cut
; Beams X-direction
91 31 32
92 32 33
93 33 34
94 34 35
95 35 36
96 37 38
97 38 39
98 39 40
99 40 41
100 41 42
101 43 44
102 44 45
103 45 46
104 46 47
105 47 48
106 49 50
107 50 51
108 51 52
109 52 53
110 53 54
# ... 55 like lines cut
; Beams Y-direction
166 31 37
167 32 38
168 33 39
169 34 40
170 35 41
171 36 42
172 37 43
173 38 44
174 39 45
175 40 46
176 41 47
177 42 48
178 43 49
179 44 50
180 45 51
181 46 52
182 47 53
183 48 54
184 49 55
185 50 56
# ... 52 like lines cut
; Bracing
238 1 38
239 2 37
240 7 44
241 8 43
242 13 50
243 14 49
244 19 56
245 20 55
246 5 42
247 6 41
248 11 48
249 12 47
250 17 54
251 18 53
252 23 60
253 24 59
254 31 68
255 32 67
256 37 74
257 38 73
# ... 28 like lines cut

DEFINE MATERIAL START
ISOTROPIC STEEL
E 200000000
POISSON 0.3
DENSITY 78.5
ALPHA 1.2e-005
DAMP 0.03
END DEFINE MATERIAL

MEMBER PROPERTY
1 TO 90 PRIS YD 0.4 ZD 0.4
91 TO 165 PRIS YD 0.5 ZD 0.3
166 TO 237 PRIS YD 0.5 ZD 0.3
238 TO 285 PRIS YD 0.15 ZD 0.15

CONSTANTS
MATERIAL STEEL ALL

SUPPORTS
1 FIXED
2 FIXED
3 FIXED
4 FIXED
5 FIXED
6 FIXED
7 FIXED
8 FIXED
9 FIXED
10 FIXED
11 FIXED
12 FIXED
13 FIXED
14 FIXED
15 FIXED
16 FIXED
17 FIXED
18 FIXED
19 FIXED
20 FIXED
# ... 10 like lines cut

LOADING 1 Dead Load
MEMBER LOAD
; Dead load on beams (self weight + slab)
; Floor 1
91 TO 115 UNI GY -15
166 TO 189 UNI GY -15
; Floor 2
116 TO 140 UNI GY -15
190 TO 213 UNI GY -15
; Floor 3
141 TO 165 UNI GY -15
214 TO 237 UNI GY -15

LOADING 2 Live Load
MEMBER LOAD
; Live load on beams
; Floor 1
91 TO 115 UNI GY -5
166 TO 189 UNI GY -5
; Floor 2
116 TO 140 UNI GY -5
190 TO 213 UNI GY -5
; Floor 3
141 TO 165 UNI GY -5
214 TO 237 UNI GY -5

LOADING 3 Wind Load X
JOINT LOAD
; Wind load in X direction on exposed joints
31 FX 1.5
32 FX 1.5
33 FX 1.5
34 FX 1.5
35 FX 1.5
36 FX 1.5
55 FX 1.5
56 FX 1.5
57 FX 1.5
58 FX 1.5
59 FX 1.5
60 FX 1.5
61 FX 3.0
62 FX 3.0
63 FX 3.0
64 FX 3.0
65 FX 3.0
66 FX 3.0
85 FX 3.0
86 FX 3.0
# ... 16 like lines cut

LOAD COMBINATION 4 1.2 DL + 1.6 LL
1 1.2 2 1.6

LOAD COMBINATION 5 1.2 DL + 1.6 WL
1 1.2 3 1.6

PERFORM ANALYSIS

PRINT SUPPORT REACTIONS
PRINT MEMBER FORCES ALL
PRINT MEMBER STRESSES ALL
PRINT DISPLACEMENTS ALL

FINISH
